
  EPA STORM WATER MANAGEMENT MODEL - VERSION 5.0 (Build 5.0.022)
  --------------------------------------------------------------

  
  *********************************************************
  NOTE: The summary statistics displayed in this report are
  based on results found at every computational time step,  
  not just on results from each reporting time step.
  *********************************************************
  
  ****************
  Analysis Options
  ****************
  Flow Units ............... CMS
  Process Models:
    Rainfall/Runoff ........ YES
    Snowmelt ............... NO
    Groundwater ............ NO
    Flow Routing ........... YES
    Ponding Allowed ........ YES
    Water Quality .......... YES
  Infiltration Method ...... CURVE_NUMBER
  Flow Routing Method ...... DYNWAVE
  Starting Date ............ NOV-19-2012 00:00:00
  Ending Date .............. NOV-19-2012 20:00:00
  Antecedent Dry Days ...... 0.0
  Report Time Step ......... 00:10:00
  Wet Time Step ............ 00:05:00
  Dry Time Step ............ 01:00:00
  Routing Time Step ........ 30.00 sec
  

  WARNING 08: elevation drop exceeds length for Conduit 7

  WARNING 04: minimum elevation drop used for Conduit 82

  WARNING 08: elevation drop exceeds length for Conduit 91

  WARNING 08: elevation drop exceeds length for Conduit 94

  WARNING 04: minimum elevation drop used for Conduit 123

  WARNING 04: minimum elevation drop used for Conduit 124

  WARNING 04: minimum elevation drop used for Conduit 128

  WARNING 08: elevation drop exceeds length for Conduit 222

  WARNING 02: maximum depth increased for Node 51

  WARNING 02: maximum depth increased for Node 64

  WARNING 02: maximum depth increased for Node 65

  WARNING 02: maximum depth increased for Node 66

  WARNING 02: maximum depth increased for Node 70

  WARNING 02: maximum depth increased for Node 71

  WARNING 02: maximum depth increased for Node 72

  WARNING 02: maximum depth increased for Node F1

  WARNING 02: maximum depth increased for Node 75

  WARNING 02: maximum depth increased for Node 76

  WARNING 02: maximum depth increased for Node 83

  WARNING 02: maximum depth increased for Node 84

  WARNING 02: maximum depth increased for Node 87

  WARNING 02: maximum depth increased for Node 88

  WARNING 02: maximum depth increased for Node 89

  WARNING 02: maximum depth increased for Node 90

  WARNING 02: maximum depth increased for Node 99

  WARNING 02: maximum depth increased for Node 102

  WARNING 02: maximum depth increased for Node 103

  WARNING 02: maximum depth increased for Node F5

  WARNING 02: maximum depth increased for Node 115

  WARNING 02: maximum depth increased for Node 116

  WARNING 02: maximum depth increased for Node 122

  WARNING 02: maximum depth increased for Node F8

  WARNING 02: maximum depth increased for Node 133

  WARNING 02: maximum depth increased for Node 134

  WARNING 02: maximum depth increased for Node 144

  WARNING 02: maximum depth increased for Node 163

  WARNING 02: maximum depth increased for Node 164

  WARNING 02: maximum depth increased for Node 165

  WARNING 02: maximum depth increased for Node 168

  WARNING 02: maximum depth increased for Node 170

  WARNING 02: maximum depth increased for Node 171

  WARNING 02: maximum depth increased for Node 191

  WARNING 02: maximum depth increased for Node 208

  WARNING 02: maximum depth increased for Node 211

  WARNING 02: maximum depth increased for Node 213

  WARNING 02: maximum depth increased for Node 227

  WARNING 02: maximum depth increased for Node 229

  WARNING 02: maximum depth increased for Node 230

  WARNING 02: maximum depth increased for Node B4

  WARNING 02: maximum depth increased for Node 232

  WARNING 02: maximum depth increased for Node 240

  WARNING 02: maximum depth increased for Node 246

  WARNING 02: maximum depth increased for Node 250

  WARNING 02: maximum depth increased for Node 257

  WARNING 02: maximum depth increased for Node 262
  
  **************************        Volume         Depth
  Runoff Quantity Continuity     hectare-m            mm
  **************************     ---------       -------
  Total Precipitation ......      1874.185        77.080
  Evaporation Loss .........         0.000         0.000
  Infiltration Loss ........      1395.107        57.377
  Surface Runoff ...........       458.973        18.876
  Final Surface Storage ....        20.568         0.846
  Continuity Error (%) .....        -0.025
  
  
  **************************            OD           DBO            FT            STColiformesTotais
  Runoff Quality Continuity             kg            kg            kg            kg          LogN
  **************************    ----------    ----------    ----------    ----------    ----------
  Initial Buildup ..........     22621.822     19388.200      1952.549    204348.073         7.088
  Surface Buildup ..........      5201.206       615.896         0.000     31752.189        13.943
  Wet Deposition ...........    138690.485     48729.089      1349.421   1173621.375        13.574
  Sweeping Removal .........         0.000         0.000         0.000         0.000         0.000
  Infiltration Loss ........    104841.770     36836.298      1020.082    887188.061        13.452
  BMP Removal ..............         0.000         0.000         0.000         0.000         0.000
  Surface Runoff ...........     60905.521     25183.686       604.514    503762.136        13.986
  Remaining Buildup ........      2401.733      7287.796      1693.287     32611.477         1.065
  Continuity Error (%) .....        -0.982        -0.836        -0.482        -0.982        -0.352
  
  
  **************************        Volume        Volume
  Flow Routing Continuity        hectare-m      10^6 ltr
  **************************     ---------     ---------
  Dry Weather Inflow .......         0.000         0.000
  Wet Weather Inflow .......       458.907      4589.114
  Groundwater Inflow .......         0.000         0.000
  RDII Inflow ..............         0.000         0.000
  External Inflow ..........         0.000         0.000
  External Outflow .........         1.342        13.416
  Internal Outflow .........       461.497      4615.016
  Storage Losses ...........         0.000         0.000
  Initial Stored Volume ....        17.892       178.918
  Final Stored Volume ......        13.121       131.208
  Continuity Error (%) .....         0.176
  
  
  **************************            OD           DBO            FT            STColiformesTotais
  Quality Routing Continuity            kg            kg            kg            kg          LogN
  **************************    ----------    ----------    ----------    ----------    ----------
  Dry Weather Inflow .......         0.000         0.000         0.000         0.000         0.000
  Wet Weather Inflow .......     60901.261     25182.050       604.472    503726.400        13.986
  Groundwater Inflow .......         0.000         0.000         0.000         0.000         0.000
  RDII Inflow ..............         0.000         0.000         0.000         0.000         0.000
  External Inflow ..........         0.000         0.000         0.000         0.000         0.000
  Internal Flooding ........     59404.878     24564.830       589.495    491144.171        13.976
  External Outflow .........       173.859        72.801         1.750      1469.378        11.446
  Mass Reacted .............         0.000         0.000         0.000         0.000         0.000
  Initial Stored Mass ......         0.000         0.000         0.000         0.000         0.000
  Final Stored Mass ........      1393.669       575.337        13.955     11724.155        12.322
  Continuity Error (%) .....        -0.117        -0.123        -0.121        -0.121        -0.136
  
  
  *************************
  Highest Continuity Errors
  *************************
  Node 116 (-1088.14%)
  Node 161 (-502.64%)
  Node 186 (-472.79%)
  Node 154 (-463.32%)
  Node 243 (-444.39%)
  
  
  ***************************
  Time-Step Critical Elements
  ***************************
  Link 166 (35.42%)
  Link 64 (13.93%)
  Link 51 (5.48%)
  Link 163 (3.48%)
  Link 125 (2.86%)
  
  
  ********************************
  Highest Flow Instability Indexes
  ********************************
  Link 220 (2)
  
  
  *************************
  Routing Time Step Summary
  *************************
  Minimum Time Step           :    12.73 sec
  Average Time Step           :    21.34 sec
  Maximum Time Step           :    30.00 sec
  Percent in Steady State     :     0.00
  Average Iterations per Step :     2.08
  
  
  ***************************
  Subcatchment Runoff Summary
  ***************************
  
  --------------------------------------------------------------------------------------------------------
                            Total      Total      Total      Total      Total       Total     Peak  Runoff
                           Precip      Runon       Evap      Infil     Runoff      Runoff   Runoff   Coeff
  Subcatchment                 mm         mm         mm         mm         mm    10^6 ltr      CMS
  --------------------------------------------------------------------------------------------------------
  1                         77.08       0.00       0.00      61.92      14.24      101.62     6.21   0.185
  2                         77.08       0.00       0.00      62.11      14.13      107.42     6.34   0.183
  3                         77.08       0.00       0.00      61.50      14.73       87.19     5.32   0.191
  4                         77.08       0.00       0.00      59.67      16.70       39.40     2.76   0.217
  5                         77.08       0.00       0.00      64.19      12.08       73.02     4.38   0.157
  6                         77.08       0.00       0.00      38.62      38.09      140.33    48.18   0.494
  7                         77.08       0.00       0.00      12.88      64.15      320.74   106.70   0.832
  8                         77.08       0.00       0.00      54.76      21.42       56.74     3.83   0.278
  9                         77.08       0.00       0.00       8.08      68.90      569.77   170.42   0.894
  10                        77.08       0.00       0.00      58.03      18.25       72.81     4.47   0.237
  11                        77.08       0.00       0.00      58.55      17.66      110.52     6.52   0.229
  12                        77.08       0.00       0.00      58.03      18.11       98.79     5.97   0.235
  13                        77.08       0.00       0.00      60.88      15.18      220.65    11.59   0.197
  14                        77.08       0.00       0.00      60.59      15.82       19.90     1.49   0.205
  15                        77.08       0.00       0.00      54.39      22.02       19.86     1.61   0.286
  16                        77.08       0.00       0.00      56.47      19.79       55.54     3.77   0.257
  17                        77.08       0.00       0.00      59.84      16.33      150.68     8.23   0.212
  18                        77.08       0.00       0.00      58.55      17.61      100.62     5.91   0.229
  19                        77.08       0.00       0.00      59.58      16.60      132.07     7.33   0.215
  20                        77.08       0.00       0.00      63.85      12.48       49.39     3.04   0.162
  21                        77.08       0.00       0.00      58.80      17.38      128.19     7.43   0.225
  22                        77.08       0.00       0.00      62.91      13.43       34.81     2.20   0.174
  23                        77.08       0.00       0.00      64.25      11.98       26.48     1.66   0.155
  24                        77.08       0.00       0.00      65.23      11.03       85.13     4.96   0.143
  25                        77.08       0.00       0.00      63.18      13.01      110.05     6.29   0.169
  26                        77.08       0.00       0.00      61.60      14.55       52.02     3.23   0.189
  27                        77.08       0.00       0.00      60.98      15.37       65.67     4.37   0.199
  28                        77.08       0.00       0.00      63.49      12.74      122.43     6.92   0.165
  29                        77.08       0.00       0.00      56.99      19.21       93.32     6.05   0.249
  30                        77.08       0.00       0.00      58.55      17.60      121.22     7.11   0.228
  31                        77.08       0.00       0.00      59.58      16.47      159.78     8.76   0.214
  32                        77.08       0.00       0.00      60.98      15.35       65.81     4.36   0.199
  33                        77.08       0.00       0.00      59.72      16.61       50.34     3.63   0.216
  34                        77.08       0.00       0.00      59.84      16.34      169.72     9.28   0.212
  35                        77.08       0.00       0.00      56.47      19.80       55.39     3.76   0.257
  36                        77.08       0.00       0.00      58.03      18.14       89.49     5.42   0.235
  37                        77.08       0.00       0.00      57.51      18.76       67.86     4.30   0.243
  38                        77.08       0.00       0.00      58.80      17.26      150.16     8.60   0.224
  39                        77.08       0.00       0.00      63.49      12.79      120.69     6.86   0.166
  40                        77.08       0.00       0.00      62.55      13.68       87.96     5.23   0.177
  41                        77.08       0.00       0.00      58.80      17.45      136.34     7.96   0.226
  42                        77.08       0.00       0.00      57.51      18.75       69.84     4.42   0.243
  
  
  ****************************
  Subcatchment Washoff Summary
  ****************************
  
  ------------------------------------------------------------------------------------------
                                  OD           DBO            FT            STColiformesTotais
  Subcatchment                    kg            kg            kg            kg          LogN
  ------------------------------------------------------------------------------------------
  1                         1331.904       557.732        13.410     11256.676        12.330
  2                         1402.578       586.854        14.120     11854.051        12.351
  3                         1140.870       477.568        11.486      9642.161        12.262
  4                          516.061       216.065         5.196      4361.527        11.918
  5                          952.774       398.594         9.591      8052.493        12.182
  6                         1903.197       773.364        18.506     15253.969        12.477
  7                         4206.025      1760.327        42.323     35515.803        12.829
  8                          830.726       316.477         7.488      5910.317        12.102
  9                         8174.781      3168.467        75.197     60076.600        13.099
  10                         952.087       398.494         9.585      8046.656        12.183
  11                        1445.728       605.146        14.555     12218.704        12.365
  12                        1294.862       542.224        13.037     10943.610        12.318
  13                        2879.340      1204.605        28.985     24335.110        12.663
  14                         260.777       109.200         2.626      2203.978        11.622
  15                         260.325       109.012         2.621      2200.155        11.621
  16                         728.004       304.853         7.330      6152.774        12.068
  17                        1966.477       822.714        19.796     16619.927        12.497
  18                        1317.443       551.561        13.264     11134.471        12.325
  19                        1723.992       721.306        17.355     14570.526        12.440
  20                         644.106       269.440         6.484      5443.752        12.012
  21                        1676.673       701.803        16.880     14170.562        12.429
  22                         454.486       190.163         4.575      3841.145        11.861
  23                         347.003       145.305         3.494      2932.717        11.746
  24                        1109.281       463.941        11.166      9375.252        12.248
  25                        1437.006       601.274        14.466     12145.024        12.361
  26                         681.736       285.475         6.864      5761.737        12.039
  27                         859.320       359.716         8.652      7262.621        12.139
  28                        1594.736       666.924        16.052     13478.151        12.405
  29                        1223.167       512.199        12.316     10337.676        12.293
  30                        1587.816       664.804        15.987     13419.548        12.406
  31                        2092.080       875.871        21.063     17681.385        12.526
  32                         861.641       360.733         8.675      7282.232        12.140
  33                         659.760       276.274         6.643      5576.003        12.025
  34                        2215.034       926.719        22.298     18720.636        12.549
  35                         726.070       304.043         7.310      6136.424        12.066
  36                        1172.958       491.174        11.810      9913.331        12.275
  37                         888.527       371.984         8.946      7509.456        12.154
  38                        1968.090       824.131        19.816     16633.444        12.499
  39                        1573.024       657.929        15.834     13294.635        12.399
  40                        1149.811       481.216        11.576      9717.746        12.265
  41                        1780.661       745.096        17.926     15049.457        12.454
  42                         914.586       382.909         9.208      7729.696        12.166
  ------------------------------------------------------------------------------------------
  System                   60905.521     25183.686       604.514    503762.136        13.986
  
  
  ******************
  Node Depth Summary
  ******************
  
  ---------------------------------------------------------------------
                                 Average  Maximum  Maximum  Time of Max
                                   Depth    Depth      HGL   Occurrence
  Node                 Type       Meters   Meters   Meters  days hr:min
  ---------------------------------------------------------------------
  43                   JUNCTION     0.00     0.08   571.08     0  00:05
  44                   JUNCTION     0.02     0.12   570.12     0  00:05
  45                   JUNCTION     0.01     0.10   569.10     0  00:05
  46                   JUNCTION     0.02     0.08   567.08     0  00:30
  47                   JUNCTION     0.03     0.15   566.15     0  00:05
  R1                   JUNCTION     1.13     1.30   565.30     0  04:32
  49                   JUNCTION     0.04     0.04   569.04     0  05:33
  50                   JUNCTION     0.00     0.00   899.00     0  00:05
  51                   JUNCTION     0.05     0.11   891.11     0  05:20
  52                   JUNCTION     0.63     1.30   564.30     0  04:37
  53                   JUNCTION     0.39     0.93   562.93     0  04:59
  54                   JUNCTION     0.00     0.05   563.05     0  00:05
  55                   JUNCTION     0.65     1.30   561.30     0  05:12
  56                   JUNCTION     0.27     0.53   559.53     0  10:02
  57                   JUNCTION     0.69     1.30   558.30     0  04:26
  58                   JUNCTION     0.74     1.30   557.30     0  04:31
  59                   JUNCTION     0.00     0.08   562.08     0  00:05
  60                   JUNCTION     0.00     0.10   560.10     0  00:05
  61                   JUNCTION     0.01     0.13   558.13     0  00:05
  62                   JUNCTION     0.22     0.39   554.39     0  04:45
  63                   JUNCTION     0.22     0.38   530.38     0  05:00
  64                   JUNCTION     0.78     1.50   514.50     0  04:38
  65                   JUNCTION     0.01     0.29   554.29     0  00:05
  66                   JUNCTION     0.01     0.29   553.29     0  00:05
  67                   JUNCTION     0.05     0.41   550.41     0  00:24
  68                   JUNCTION     0.00     0.19   554.19     0  00:05
  R2                   JUNCTION     0.01     0.26   552.26     0  00:05
  70                   JUNCTION     0.34     0.85   549.85     0  05:26
  71                   JUNCTION     1.15     2.20   514.20     0  04:39
  72                   JUNCTION     1.22     2.28   512.28     0  07:48
  F1                   JUNCTION     0.62     1.30   509.30     0  05:15
  74                   JUNCTION     0.11     0.29   512.29     0  09:07
  75                   JUNCTION     1.30     2.50   502.50     0  04:55
  76                   JUNCTION     0.02     0.29   515.29     0  00:05
  F2                   JUNCTION     0.31     0.60   513.60     0  04:35
  78                   JUNCTION     0.82     1.60   513.60     0  03:25
  F3                   JUNCTION     0.92     1.50   497.50     0  04:51
  80                   JUNCTION     0.54     0.88   490.88     0  09:54
  81                   JUNCTION     1.01     1.50   481.50     0  03:47
  82                   JUNCTION     0.00     0.11   560.11     0  00:05
  83                   JUNCTION     0.00     0.11   559.11     0  00:05
  84                   JUNCTION     0.00     0.10   526.10     0  00:06
  85                   JUNCTION     0.01     0.11   510.11     0  00:19
  86                   JUNCTION     0.01     0.06   498.06     0  00:05
  87                   JUNCTION     0.01     0.09   490.09     0  00:12
  88                   JUNCTION     0.46     2.20   489.20     0  04:20
  89                   JUNCTION     0.00     0.02   513.02     0  00:05
  90                   JUNCTION     1.03     1.90   480.90     0  03:47
  91                   JUNCTION     1.47     1.50   474.50     0  00:59
  92                   JUNCTION     0.00     0.04   505.04     0  00:05
  93                   JUNCTION     0.00     0.06   500.06     0  00:05
  94                   JUNCTION     0.09     0.24   495.24     0  05:09
  95                   JUNCTION     0.01     0.23   505.23     0  00:05
  96                   JUNCTION     0.01     0.21   503.21     0  00:05
  97                   JUNCTION     0.01     0.19   500.19     0  00:05
  98                   JUNCTION     0.01     0.24   501.24     0  00:05
  99                   JUNCTION     0.43     1.08   493.08     0  05:16
  F4                   JUNCTION     0.53     1.30   492.30     0  05:21
  101                  JUNCTION     0.61     1.50   490.50     0  05:27
  102                  JUNCTION     0.48     1.27   488.27     0  04:56
  103                  JUNCTION     0.60     1.51   486.51     0  05:33
  104                  JUNCTION     0.00     0.09   488.09     0  00:05
  F5                   JUNCTION     0.38     0.91   481.91     0  05:47
  106                  JUNCTION     0.00     0.06   489.06     0  00:05
  107                  JUNCTION     0.37     0.88   476.88     0  05:34
  108                  JUNCTION     0.70     1.67   471.67     0  05:36
  109                  JUNCTION     0.78     1.84   470.84     0  05:43
  110                  JUNCTION     0.00     0.03   500.03     0  00:05
  111                  JUNCTION     1.13     2.43   469.43     0  05:48
  F6                   JUNCTION     1.08     2.25   469.15     0  05:49
  113                  JUNCTION     1.42     2.50   469.00     0  05:34
  114                  JUNCTION     0.00     0.03   500.03     0  00:05
  115                  JUNCTION     0.00     0.06   490.06     0  00:05
  116                  JUNCTION     0.03     0.23   485.23     0  00:05
  117                  JUNCTION     0.02     0.18   476.18     0  00:05
  118                  JUNCTION     0.04     0.29   471.29     0  00:23
  119                  JUNCTION     0.00     0.13   492.13     0  00:05
  120                  JUNCTION     0.01     0.18   484.18     0  00:05
  121                  JUNCTION     0.01     0.12   479.12     0  00:05
  122                  JUNCTION     0.02     0.16   469.16     0  00:05
  F7                   JUNCTION     0.04     0.23   464.23     0  00:05
  124                  JUNCTION     1.89     1.90   463.90     0  00:13
  125                  JUNCTION     0.53     1.13   468.13     0  06:41
  F8                   JUNCTION     0.32     0.72   467.72     0  06:42
  127                  JUNCTION     0.41     1.03   467.03     0  05:39
  128                  JUNCTION     0.00     0.06   503.06     0  00:05
  129                  JUNCTION     0.01     0.15   500.15     0  00:05
  130                  JUNCTION     0.02     0.18   498.18     0  00:08
  131                  JUNCTION     0.00     0.11   500.11     0  00:05
  132                  JUNCTION     0.02     0.15   495.15     0  00:05
  133                  JUNCTION     0.03     0.19   492.19     0  00:18
  134                  JUNCTION     0.00     0.14   494.14     0  00:05
  135                  JUNCTION     0.02     0.12   489.12     0  00:05
  136                  JUNCTION     0.02     0.14   481.14     0  00:11
  F9                   JUNCTION     1.76     2.00   479.00     0  04:34
  138                  JUNCTION     0.08     0.17   772.17     0  05:25
  139                  JUNCTION     1.01     2.00   467.00     0  05:38
  140                  JUNCTION     0.43     1.05   465.95     0  05:58
  141                  JUNCTION     0.79     1.86   465.86     0  05:58
  142                  JUNCTION     0.00     0.10   475.10     0  00:05
  143                  JUNCTION     0.44     1.00   470.00     0  04:37
  144                  JUNCTION     1.03     2.00   465.00     0  05:18
  145                  JUNCTION     0.63     1.29   463.09     0  05:18
  146                  JUNCTION     0.71     1.39   462.39     0  09:26
  F10                  JUNCTION     0.43     0.88   459.88     0  05:52
  148                  JUNCTION     0.00     0.13   481.13     0  00:05
  149                  JUNCTION     0.02     0.31   477.31     0  00:05
  150                  JUNCTION     0.02     0.30   475.30     0  00:05
  151                  JUNCTION     0.03     0.29   472.29     0  00:11
  152                  JUNCTION     0.05     0.46   469.46     0  00:20
  153                  JUNCTION     0.00     0.12   473.12     0  00:05
  154                  JUNCTION     0.03     0.42   471.42     0  00:05
  F11                  JUNCTION     0.09     0.77   465.77     0  00:38
  156                  JUNCTION     0.92     1.50   464.50     0  04:21
  157                  JUNCTION     0.48     0.96   456.96     0  05:54
  F12                  JUNCTION     0.87     1.50   453.50     0  05:20
  159                  JUNCTION     0.85     1.47   453.17     0  05:37
  160                  JUNCTION     0.00     0.03   459.03     0  00:05
  161                  JUNCTION     0.01     0.12   454.12     0  00:05
  162                  JUNCTION     0.83     1.50   453.00     0  05:34
  163                  JUNCTION     1.13     1.93   452.93     0  08:50
  164                  JUNCTION     1.20     2.07   452.77     0  08:49
  165                  JUNCTION     1.34     2.28   452.58     0  08:45
  166                  JUNCTION     1.49     2.46   452.46     0  08:41
  F13                  JUNCTION     1.41     2.37   452.37     0  08:42
  168                  JUNCTION     1.18     2.17   452.17     0  08:43
  169                  JUNCTION     0.41     1.12   452.12     0  08:42
  170                  JUNCTION     1.29     2.31   452.11     0  08:42
  171                  JUNCTION     1.73     2.73   451.73     0  08:43
  J                    JUNCTION     0.29     0.52   449.52     0  08:45
  173                  JUNCTION     3.89     4.52   449.52     0  08:44
  174                  JUNCTION     0.02     0.04   690.04     0  05:21
  175                  JUNCTION     0.01     0.21   720.21     0  00:05
  176                  JUNCTION     0.14     0.44   718.44     0  00:11
  177                  JUNCTION     0.04     0.35   715.35     0  00:05
  178                  JUNCTION     0.06     0.25   711.25     0  00:51
  179                  JUNCTION     0.10     0.23   707.23     0  08:35
  180                  JUNCTION     0.02     0.19   500.19     0  00:05
  181                  JUNCTION     0.10     0.30   497.30     0  00:20
  182                  JUNCTION     0.05     0.25   495.25     0  00:05
  183                  JUNCTION     0.04     0.16   491.16     0  00:27
  184                  JUNCTION     0.57     1.31   488.31     0  05:34
  185                  JUNCTION     0.00     0.07   499.07     0  00:05
  186                  JUNCTION     0.01     0.16   495.16     0  00:05
  187                  JUNCTION     0.01     0.17   489.17     0  00:05
  188                  JUNCTION     0.43     1.07   487.07     0  05:22
  B1                   JUNCTION     0.71     1.66   485.66     0  05:35
  190                  JUNCTION     0.96     2.34   482.34     0  05:15
  191                  JUNCTION     1.43     3.05   481.05     0  06:32
  192                  JUNCTION     0.62     1.39   478.39     0  06:26
  193                  JUNCTION     0.00     0.10   505.10     0  00:05
  194                  JUNCTION     0.01     0.13   499.13     0  00:05
  195                  JUNCTION     0.03     0.14   493.14     0  00:24
  196                  JUNCTION     0.02     0.11   489.11     0  00:05
  197                  JUNCTION     0.03     0.14   482.14     0  00:32
  198                  JUNCTION     0.41     0.95   479.95     0  05:31
  199                  JUNCTION     1.05     2.34   477.34     0  06:20
  200                  JUNCTION     1.49     3.00   476.00     0  05:48
  201                  JUNCTION     0.55     1.15   471.15     0  05:51
  B3                   JUNCTION     0.99     2.00   470.00     0  05:37
  203                  JUNCTION     0.68     1.39   467.39     0  06:58
  204                  JUNCTION     0.81     1.68   463.68     0  05:51
  205                  JUNCTION     0.00     0.09   508.09     0  00:05
  206                  JUNCTION     0.00     0.15   505.15     0  00:05
  207                  JUNCTION     0.02     0.20   501.20     0  00:08
  208                  JUNCTION     0.63     1.50   496.50     0  04:57
  209                  JUNCTION     0.01     0.14   516.14     0  00:05
  210                  JUNCTION     0.01     0.14   513.14     0  00:05
  211                  JUNCTION     0.02     0.17   510.17     0  00:10
  212                  JUNCTION     0.00     0.11   512.11     0  00:05
  213                  JUNCTION     0.02     0.16   507.16     0  00:14
  214                  JUNCTION     0.01     0.15   509.15     0  00:05
  215                  JUNCTION     0.00     0.09   511.09     0  00:05
  216                  JUNCTION     0.81     1.89   505.89     0  05:27
  217                  JUNCTION     1.04     2.00   502.00     0  04:37
  218                  JUNCTION     0.79     1.53   497.53     0  09:34
  B2                   JUNCTION     1.07     2.25   494.25     0  05:52
  220                  JUNCTION     0.93     1.90   490.90     0  06:38
  221                  JUNCTION     0.61     1.33   487.33     0  05:32
  222                  JUNCTION     0.00     0.11   489.11     0  00:05
  223                  JUNCTION     0.93     2.02   485.02     0  05:33
  224                  JUNCTION     0.74     1.62   479.62     0  05:38
  225                  JUNCTION     1.00     2.23   474.23     0  05:32
  226                  JUNCTION     0.00     0.10   505.10     0  00:05
  227                  JUNCTION     0.02     0.16   502.16     0  00:05
  228                  JUNCTION     0.00     0.10   506.10     0  00:05
  229                  JUNCTION     0.03     0.18   497.18     0  00:05
  230                  JUNCTION     0.03     0.15   493.15     0  00:05
  B4                   JUNCTION     0.05     0.20   489.20     0  00:51
  232                  JUNCTION     0.21     0.47   484.47     0  05:27
  233                  JUNCTION     1.25     2.00   461.00     0  04:53
  234                  JUNCTION     0.01     0.22   465.22     0  00:05
  235                  JUNCTION     0.49     1.00   464.00     0  04:33
  236                  JUNCTION     0.00     0.12   470.12     0  00:05
  237                  JUNCTION     0.02     0.18   460.18     0  00:05
  B5                   JUNCTION     0.84     1.50   457.50     0  05:28
  239                  JUNCTION     1.00     1.90   454.90     0  05:10
  240                  JUNCTION     1.84     1.90   452.90     0  01:56
  241                  JUNCTION     0.00     0.04   759.04     0  00:05
  242                  JUNCTION     0.00     0.07   469.07     0  00:05
  243                  JUNCTION     0.01     0.13   449.13     0  00:05
  B6                   JUNCTION     0.02     0.17   440.17     0  00:10
  245                  JUNCTION     0.30     0.63   437.63     0  05:44
  246                  JUNCTION     0.51     1.10   436.10     0  05:42
  247                  JUNCTION     0.13     0.14   478.14     0  20:00
  248                  JUNCTION     0.00     0.05   482.05     0  00:05
  249                  JUNCTION     0.01     0.06   479.06     0  00:05
  250                  JUNCTION     0.54     1.42   475.42     0  06:09
  251                  JUNCTION     0.01     0.07   480.07     0  00:05
  252                  JUNCTION     0.40     0.89   472.89     0  06:12
  253                  JUNCTION     0.48     1.00   467.00     0  04:54
  254                  JUNCTION     0.54     1.00   461.00     0  05:30
  255                  JUNCTION     0.01     0.13   463.13     0  00:05
  B7                   JUNCTION     0.25     0.53   455.53     0  05:37
  257                  JUNCTION     0.72     1.55   434.55     0  05:49
  258                  JUNCTION     0.96     2.00   432.00     0  05:36
  259                  JUNCTION     0.99     2.00   431.00     0  06:12
  B8                   JUNCTION     0.46     0.95   427.95     0  06:06
  261                  JUNCTION     0.01     0.13   431.13     0  00:05
  262                  JUNCTION     0.88     1.83   426.83     0  06:05
  263                  JUNCTION     0.67     1.41   424.41     0  06:17
  264                  JUNCTION     2.03     2.24   423.24     0  06:17
  B9                   JUNCTION     3.94     4.00   423.00     0  01:22
  73                   OUTFALL      0.02     0.04     0.04     0  05:21
  
  
  *******************
  Node Inflow Summary
  *******************
  
  -------------------------------------------------------------------------------------
                                  Maximum  Maximum                  Lateral       Total
                                  Lateral    Total  Time of Max      Inflow      Inflow
                                   Inflow   Inflow   Occurrence      Volume      Volume
  Node                 Type           CMS      CMS  days hr:min    10^6 ltr    10^6 ltr
  -------------------------------------------------------------------------------------
  43                   JUNCTION     0.000    0.000     0  00:00       0.000       0.000
  44                   JUNCTION     0.000    0.026     0  00:05       0.000       0.041
  45                   JUNCTION     0.000    0.030     0  00:05       0.000       0.167
  46                   JUNCTION     0.000    0.054     0  00:05       0.000       0.358
  47                   JUNCTION     0.000    0.046     0  00:30       0.000       0.485
  R1                   JUNCTION     0.000    3.810     0  05:20       0.000      62.910
  49                   JUNCTION     0.000    0.005     0  00:05       0.000       0.006
  50                   JUNCTION     0.000    0.000     0  00:00       0.000       0.000
  51                   JUNCTION     6.207    6.207     0  05:20     101.598     101.598
  52                   JUNCTION     0.000    2.405     0  05:20       0.000      39.360
  53                   JUNCTION     0.000    1.171     0  04:59       0.000      24.365
  54                   JUNCTION     0.000    0.000     0  00:00       0.000       0.000
  55                   JUNCTION     0.000    1.316     0  05:07       0.000      24.401
  56                   JUNCTION     0.000    0.881     0  10:02       0.000      20.467
  57                   JUNCTION     6.341    6.998     0  05:40     107.404     128.021
  58                   JUNCTION     0.000    2.845     0  04:31       0.000      63.614
  59                   JUNCTION     0.000    0.000     0  00:00       0.000       0.000
  60                   JUNCTION     0.000    0.034     0  00:05       0.000       0.041
  61                   JUNCTION     0.000    0.067     0  00:05       0.000       0.114
  62                   JUNCTION     0.000    1.605     0  04:45       0.000      44.218
  63                   JUNCTION     0.000    1.622     0  04:48       0.000      44.288
  64                   JUNCTION     5.321    6.910     0  05:20      87.175     131.516
  65                   JUNCTION     0.000    0.000     0  00:00       0.000       0.000
  66                   JUNCTION     0.000    0.046     0  00:05       0.000       0.095
  67                   JUNCTION     0.000    0.166     0  00:05       0.000       0.391
  68                   JUNCTION     0.000    0.000     0  00:00       0.000       0.000
  R2                   JUNCTION     0.000    0.036     0  00:05       0.000       0.047
  70                   JUNCTION     4.379    4.385     0  05:24      73.009      73.683
  71                   JUNCTION     0.000    7.226     0  05:27       0.000     152.337
  72                   JUNCTION     0.000    6.045     0  05:02       0.000     141.065
  F1                   JUNCTION     2.760    8.694     0  05:14      39.398     180.417
  74                   JUNCTION     0.000    0.035     0  05:12       0.000       0.133
  75                   JUNCTION     0.000   13.449     0  05:15       0.000     296.184
  76                   JUNCTION     0.000    0.000     0  00:00       0.000       0.000
  F2                   JUNCTION     0.000    0.222     0  03:25       0.000       1.478
  78                   JUNCTION   106.207  106.207     0  04:25     320.882     322.760
  F3                   JUNCTION     0.000    8.935     0  04:51       0.000     233.200
  80                   JUNCTION     0.000    7.639     0  08:09       0.000     219.863
  81                   JUNCTION    47.700   51.646     0  04:25     140.373     360.505
  82                   JUNCTION     0.000    0.000     0  00:00       0.000       0.000
  83                   JUNCTION     0.000    0.083     0  00:05       0.000       0.095
  84                   JUNCTION     0.000    0.257     0  00:05       0.000       0.364
  85                   JUNCTION     0.000    0.254     0  00:06       0.000       0.564
  86                   JUNCTION     0.000    0.167     0  00:20       0.000       0.758
  87                   JUNCTION     0.000    0.238     0  00:05       0.000       0.969
  88                   JUNCTION   169.795  169.803     0  04:25     569.992     570.868
  89                   JUNCTION     0.000    0.000     0  00:00       0.000       0.000
  90                   JUNCTION     0.000   64.129     0  04:40       0.000     664.829
  91                   JUNCTION     0.000   16.936     0  05:10       0.000     460.711
  92                   JUNCTION     0.000    0.000     0  00:00       0.000       0.000
  93                   JUNCTION     0.000    0.022     0  00:05       0.000       0.025
  94                   JUNCTION     3.834    3.834     0  05:09      56.729      56.735
  95                   JUNCTION     0.000    0.000     0  00:00       0.000       0.000
  96                   JUNCTION     0.000    0.056     0  00:05       0.000       0.107
  97                   JUNCTION     0.000    0.141     0  00:05       0.000       0.306
  98                   JUNCTION     0.000    0.000     0  00:00       0.000       0.000
  99                   JUNCTION     4.470    5.786     0  05:14      72.795      92.860
  F4                   JUNCTION     0.000    5.782     0  05:16       0.000      93.037
  101                  JUNCTION     0.000    5.773     0  05:21       0.000      93.428
  102                  JUNCTION     0.000    5.760     0  05:28       0.000      93.979
  103                  JUNCTION     0.000    5.827     0  04:59       0.000      94.393
  104                  JUNCTION     0.000    0.000     0  00:00       0.000       0.000
  F5                   JUNCTION     0.000    5.765     0  05:38       0.000      94.819
  106                  JUNCTION     0.000    0.000     0  00:00       0.000       0.000
  107                  JUNCTION     6.524   12.155     0  05:33     110.501     205.702
  108                  JUNCTION     0.000   12.154     0  05:34       0.000     205.826
  109                  JUNCTION     0.000   12.151     0  05:35       0.000     205.932
  110                  JUNCTION     0.000    0.000     0  00:00       0.000       0.000
  111                  JUNCTION     0.000   12.106     0  05:43       0.000     206.712
  F6                   JUNCTION     0.000   12.083     0  05:49       0.000     209.703
  113                  JUNCTION     5.966   17.780     0  05:47      98.771     309.344
  114                  JUNCTION     0.000    0.000     0  00:00       0.000       0.000
  115                  JUNCTION     0.000    0.000     0  00:00       0.000       0.000
  116                  JUNCTION     0.000    0.051     0  00:05       0.000       0.060
  117                  JUNCTION     0.000    0.150     0  00:05       0.000       0.714
  118                  JUNCTION     0.000    0.662     0  00:05       0.000       2.033
  119                  JUNCTION     0.000    0.000     0  00:00       0.000       0.000
  120                  JUNCTION     0.000    0.116     0  00:05       0.000       0.164
  121                  JUNCTION     0.000    0.144     0  00:05       0.000       0.435
  122                  JUNCTION     0.000    0.342     0  00:24       0.000       2.391
  F7                   JUNCTION     0.000    0.378     0  00:05       0.000       2.674
  124                  JUNCTION    11.583   23.280     0  05:41     220.604     462.874
  125                  JUNCTION     0.000   15.677     0  05:35       0.000     301.389
  F8                   JUNCTION     0.000    3.664     0  05:39       0.000      63.176
  127                  JUNCTION     1.486    4.944     0  05:48      19.893      84.703
  128                  JUNCTION     0.000    0.000     0  00:00       0.000       0.000
  129                  JUNCTION     0.000    0.031     0  00:05       0.000       0.035
  130                  JUNCTION     0.000    0.150     0  00:05       0.000       0.239
  131                  JUNCTION     0.000    0.000     0  00:00       0.000       0.000
  132                  JUNCTION     0.000    0.124     0  00:05       0.000       0.525
  133                  JUNCTION     0.000    0.201     0  00:05       0.000       0.769
  134                  JUNCTION     0.000    0.000     0  00:00       0.000       0.000
  135                  JUNCTION     0.000    0.148     0  00:13       0.000       1.014
  136                  JUNCTION     0.000    0.180     0  00:05       0.000       1.189
  F9                   JUNCTION     0.000    3.682     0  05:25       0.000      68.623
  138                  JUNCTION     8.232    8.232     0  05:25     150.655     150.662
  139                  JUNCTION     0.000    9.497     0  05:40       0.000     168.460
  140                  JUNCTION     1.614   10.067     0  05:39      19.859     186.963
  141                  JUNCTION     0.000   12.548     0  05:53       0.000     238.240
  142                  JUNCTION     0.000    0.000     0  00:00       0.000       0.000
  143                  JUNCTION     3.767    3.767     0  05:09      55.533      55.637
  144                  JUNCTION     0.000   12.538     0  05:59       0.000     238.446
  145                  JUNCTION     0.000    9.706     0  05:18       0.000     212.704
  146                  JUNCTION     0.000    9.936     0  05:23       0.000     213.719
  F10                  JUNCTION     5.910   15.192     0  05:48     100.597     315.353
  148                  JUNCTION     0.000    0.000     0  00:00       0.000       0.000
  149                  JUNCTION     0.000    0.044     0  00:05       0.000       0.051
  150                  JUNCTION     0.000    0.069     0  00:05       0.000       0.249
  151                  JUNCTION     0.000    0.119     0  00:05       0.000       0.444
  152                  JUNCTION     0.000    0.170     0  00:06       0.000       0.757
  153                  JUNCTION     0.000    0.000     0  00:00       0.000       0.000
  154                  JUNCTION     0.000    0.035     0  00:05       0.000       0.038
  F11                  JUNCTION     0.000    0.150     0  00:20       0.000       0.999
  156                  JUNCTION     7.329    7.336     0  05:24     132.043     133.182
  157                  JUNCTION     0.000   16.080     0  05:52       0.000     342.285
  F12                  JUNCTION     0.000   16.077     0  05:54       0.000     342.757
  159                  JUNCTION     0.000    9.851     0  05:21       0.000     243.354
  160                  JUNCTION     0.000    0.000     0  00:00       0.000       0.000
  161                  JUNCTION     0.000    0.015     0  00:05       0.000       0.019
  162                  JUNCTION     3.042   11.995     0  05:24      49.377     293.440
  163                  JUNCTION     0.000   11.598     0  05:29       0.000     248.319
  164                  JUNCTION     0.000   10.862     0  05:34       0.000     250.930
  165                  JUNCTION     0.000   11.433     0  00:05       0.000     262.878
  166                  JUNCTION     7.435   14.503     0  06:01     128.162     397.059
  F13                  JUNCTION     0.000   14.052     0  08:35       0.000     398.682
  168                  JUNCTION     0.000   14.624     0  00:05       0.000     410.544
  169                  JUNCTION     0.000    1.141     0  00:05       0.000       1.662
  170                  JUNCTION     0.000   18.672     0  08:36       0.000     510.901
  171                  JUNCTION     2.201   20.333     0  08:37      34.803     544.280
  J                    JUNCTION     0.000   20.926     0  08:42       0.000     566.087
  173                  JUNCTION     0.000    4.176     0  00:05       0.000      35.172
  174                  JUNCTION     1.664    1.664     0  05:20      26.470      26.471
  175                  JUNCTION     0.000    0.000     0  00:00       0.000       0.000
  176                  JUNCTION     0.000    0.134     0  00:05       0.000       0.278
  177                  JUNCTION     0.000    0.103     0  00:05       0.000       1.046
  178                  JUNCTION     0.000    0.421     0  00:05       0.000       2.356
  179                  JUNCTION     4.962    4.980     0  08:34      85.114      88.149
  180                  JUNCTION     0.000    0.000     0  00:00       0.000       0.000
  181                  JUNCTION     0.000    0.131     0  00:05       0.000       0.521
  182                  JUNCTION     0.000    0.098     0  00:05       0.000       1.240
  183                  JUNCTION     0.000    0.214     0  00:05       0.000       1.871
  184                  JUNCTION     6.291    6.324     0  05:30     110.026     112.411
  185                  JUNCTION     0.000    0.000     0  00:00       0.000       0.000
  186                  JUNCTION     0.000    0.043     0  00:05       0.000       0.048
  187                  JUNCTION     0.000    0.128     0  00:05       0.000       0.274
  188                  JUNCTION     3.230    3.232     0  05:20      52.003      52.527
  B1                   JUNCTION     0.000    9.530     0  05:30       0.000     165.175
  190                  JUNCTION     0.000    9.516     0  05:35       0.000     165.321
  191                  JUNCTION     0.000    9.758     0  05:28       0.000     165.520
  192                  JUNCTION     4.368   12.428     0  06:17      65.659     230.949
  193                  JUNCTION     0.000    0.000     0  00:00       0.000       0.000
  194                  JUNCTION     0.000    0.084     0  00:05       0.000       0.159
  195                  JUNCTION     0.000    0.112     0  00:05       0.000       0.524
  196                  JUNCTION     0.000    0.096     0  00:05       0.000       0.915
  197                  JUNCTION     0.000    0.157     0  00:05       0.000       1.181
  198                  JUNCTION     6.918    6.935     0  05:30     122.407     123.763
  199                  JUNCTION     0.000   18.880     0  06:17       0.000     355.341
  200                  JUNCTION     0.000   18.871     0  06:20       0.000     355.328
  201                  JUNCTION     0.000   34.207     0  05:48       0.000     681.769
  B3                   JUNCTION     0.000   34.161     0  05:51       0.000     681.934
  203                  JUNCTION     0.000   32.215     0  06:58       0.000     676.238
  204                  JUNCTION     6.054   37.739     0  05:48      93.306     769.573
  205                  JUNCTION     0.000    0.000     0  00:00       0.000       0.000
  206                  JUNCTION     0.000    0.059     0  00:05       0.000       0.068
  207                  JUNCTION     0.000    0.137     0  00:05       0.000       0.220
  208                  JUNCTION     7.108    7.112     0  05:20     121.200     121.812
  209                  JUNCTION     0.000    0.000     0  00:00       0.000       0.000
  210                  JUNCTION     0.000    0.097     0  00:05       0.000       0.202
  211                  JUNCTION     0.000    0.204     0  00:05       0.000       0.562
  212                  JUNCTION     0.000    0.000     0  00:00       0.000       0.000
  213                  JUNCTION     0.000    0.247     0  00:05       0.000       1.042
  214                  JUNCTION     0.000    0.048     0  00:05       0.000       0.060
  215                  JUNCTION     0.000    0.000     0  00:00       0.000       0.000
  216                  JUNCTION     8.756    8.762     0  05:25     159.743     161.022
  217                  JUNCTION     0.000    8.759     0  05:27       0.000     161.068
  218                  JUNCTION     0.000    4.725     0  09:34       0.000     111.075
  B2                   JUNCTION     0.000   10.889     0  06:27       0.000     229.843
  220                  JUNCTION     0.000   10.897     0  06:29       0.000     229.944
  221                  JUNCTION     4.360   15.021     0  05:31      65.797     295.815
  222                  JUNCTION     0.000    0.000     0  00:00       0.000       0.000
  223                  JUNCTION     0.000   15.021     0  05:33       0.000     295.961
  224                  JUNCTION     0.000   15.022     0  05:35       0.000     296.000
  225                  JUNCTION     3.631   18.464     0  05:30      50.328     346.420
  226                  JUNCTION     0.000    0.000     0  00:00       0.000       0.000
  227                  JUNCTION     0.000    0.173     0  00:05       0.000       0.246
  228                  JUNCTION     0.000    0.000     0  00:00       0.000       0.000
  229                  JUNCTION     0.000    0.217     0  00:05       0.000       1.162
  230                  JUNCTION     0.000    0.320     0  00:05       0.000       2.202
  B4                   JUNCTION     0.000    0.382     0  00:05       0.000       2.769
  232                  JUNCTION     9.281    9.333     0  05:25     169.683     173.208
  233                  JUNCTION     0.000   48.450     0  05:49       0.000     978.047
  234                  JUNCTION     0.000    0.000     0  00:00       0.000       0.000
  235                  JUNCTION     3.759    3.760     0  05:09      55.385      55.603
  236                  JUNCTION     0.000    0.000     0  00:00       0.000       0.000
  237                  JUNCTION     0.000    0.084     0  00:05       0.000       0.156
  B5                   JUNCTION     5.422   19.706     0  05:20      89.475     505.770
  239                  JUNCTION     0.000   19.677     0  05:28       0.000     505.987
  240                  JUNCTION     4.300   22.647     0  05:14      67.854     569.101
  241                  JUNCTION     0.000    0.000     0  00:00       0.000       0.000
  242                  JUNCTION     0.000    0.000     0  00:00       0.000       0.004
  243                  JUNCTION     0.000    0.280     0  00:05       0.000       0.358
  B6                   JUNCTION     0.000    0.568     0  00:05       0.000       1.950
  245                  JUNCTION     0.000    8.321     0  05:37       0.000     162.510
  246                  JUNCTION     8.596   16.727     0  05:40     150.128     312.855
  247                  JUNCTION     0.000    0.028     0  00:05       0.000       0.083
  248                  JUNCTION     0.000    0.000     0  00:00       0.000       0.000
  249                  JUNCTION     0.000    0.026     0  00:05       0.000       0.077
  250                  JUNCTION     6.855    6.860     0  05:30     120.667     121.145
  251                  JUNCTION     0.000    0.000     0  00:00       0.000       0.000
  252                  JUNCTION     0.000    6.545     0  06:10       0.000     121.203
  253                  JUNCTION     0.000    6.545     0  06:12       0.000     121.212
  254                  JUNCTION     0.000    5.285     0  05:32       0.000     106.246
  255                  JUNCTION     0.000    0.000     0  00:00       0.000       0.000
  B7                   JUNCTION     5.228    8.319     0  05:32      87.940     159.016
  257                  JUNCTION     0.000   16.720     0  05:42       0.000     312.956
  258                  JUNCTION     0.000   16.640     0  05:49       0.000     313.564
  259                  JUNCTION     0.000   15.528     0  05:37       0.000     311.761
  B8                   JUNCTION     7.964   22.514     0  06:03     136.315     448.845
  261                  JUNCTION     0.000    0.000     0  00:00       0.000       0.000
  262                  JUNCTION     0.000   22.504     0  06:06       0.000     449.626
  263                  JUNCTION     0.000   22.533     0  06:10       0.000     449.941
  264                  JUNCTION     0.000   22.484     0  06:17       0.000     463.614
  B9                   JUNCTION     4.421   45.757     0  06:36      69.831    1079.119
  73                   OUTFALL      0.000    0.834     0  05:21       0.000      13.416
  
  
  **********************
  Node Surcharge Summary
  **********************
  
  Surcharging occurs when water rises above the top of the highest conduit.
  ---------------------------------------------------------------------
                                               Max. Height   Min. Depth
                                   Hours       Above Crown    Below Rim
  Node                 Type      Surcharged         Meters       Meters
  ---------------------------------------------------------------------
  R1                   JUNCTION       15.47          0.000        0.000
  52                   JUNCTION        4.79          0.000        0.000
  55                   JUNCTION        5.03          0.300        0.000
  57                   JUNCTION        5.95          0.300        0.000
  58                   JUNCTION        6.36          0.300        0.000
  64                   JUNCTION        4.99          0.000        0.000
  71                   JUNCTION        4.35          0.000        0.000
  75                   JUNCTION        4.66          0.000        0.000
  78                   JUNCTION        4.17          0.000        0.000
  F3                   JUNCTION        5.35          0.000        0.000
  81                   JUNCTION        6.84          0.000        0.000
  88                   JUNCTION        0.59          0.000        0.000
  90                   JUNCTION        3.71          0.000        0.000
  91                   JUNCTION       19.01          0.000        0.000
  113                  JUNCTION        1.13          0.000        0.000
  124                  JUNCTION       19.79          0.000        0.000
  F9                   JUNCTION       15.43          0.000        0.000
  139                  JUNCTION        1.05          0.000        0.000
  143                  JUNCTION        2.25          0.000        0.000
  144                  JUNCTION        3.99          0.000        0.000
  156                  JUNCTION        7.24          0.000        0.000
  F12                  JUNCTION        5.11          0.000        0.000
  162                  JUNCTION        4.97          0.000        0.000
  200                  JUNCTION        3.33          0.000        0.000
  B3                   JUNCTION        1.37          0.000        0.000
  208                  JUNCTION        1.50          0.000        0.000
  217                  JUNCTION        4.96          0.000        0.000
  233                  JUNCTION        6.33          0.000        0.000
  235                  JUNCTION        4.75          0.000        0.000
  239                  JUNCTION        1.81          0.000        0.000
  240                  JUNCTION       18.06          0.000        0.000
  253                  JUNCTION        4.37          0.000        0.000
  254                  JUNCTION        4.78          0.000        0.000
  258                  JUNCTION        1.02          0.000        0.000
  259                  JUNCTION        0.66          0.000        0.000
  B9                   JUNCTION       18.63          0.000        0.000
  
  
  *********************
  Node Flooding Summary
  *********************
  
  Flooding refers to all water that overflows a node, whether it ponds or not.
  --------------------------------------------------------------------------
                                                             Total   Maximum
                                 Maximum   Time of Max       Flood    Ponded
                        Hours       Rate    Occurrence      Volume     Depth
  Node                 Flooded       CMS   days hr:min    10^6 ltr    Meters
  --------------------------------------------------------------------------
  R1                     15.47     3.810      0  05:20      60.890      1.30
  52                      4.78     1.291      0  05:25      15.005      1.30
  55                      4.83     0.587      0  05:12       3.986      1.30
  57                      5.70     4.500      0  05:40      64.635      1.30
  58                      6.20     1.388      0  04:31      19.391      1.30
  64                      4.99     4.068      0  05:20      53.030      1.50
  71                      4.34     1.240      0  05:28      11.545      2.20
  75                      4.66     5.104      0  05:15      63.144      2.50
  78                      4.17   101.769      0  04:25     206.139      1.60
  F3                      5.35     1.557      0  04:51      13.700      1.50
  81                      6.84    46.455      0  04:25     166.731      1.50
  88                      0.59   110.081      0  04:25     100.123      2.20
  90                      3.71    49.707      0  04:40     241.730      1.90
  91                     19.01    16.936      0  05:10     457.734      1.50
  113                     1.12     2.140      0  05:47       5.434      2.50
  124                    19.79    23.280      0  05:41     461.102      1.90
  F9                     15.43     3.682      0  05:25      65.599      2.00
  139                     1.04     0.812      0  05:40       1.678      2.00
  143                     2.24     1.038      0  05:15       5.331      1.00
  144                     3.99     2.916      0  05:59      26.265      2.00
  156                     7.24     6.497      0  05:20     107.297      1.50
  F12                     5.11     7.197      0  05:54     100.262      1.50
  162                     4.97     3.794      0  08:35      45.608      1.50
  200                     3.33     2.988      0  06:22      19.625      3.00
  B3                      1.36     1.960      0  05:51       5.383      2.00
  208                     1.50     0.933      0  05:20       3.404      1.50
  217                     4.96     4.063      0  05:25      50.083      2.00
  233                     6.33    34.196      0  05:50     561.433      2.00
  235                     4.74     2.197      0  05:10      20.826      1.00
  239                     1.81     1.331      0  05:28       5.221      1.90
  240                    18.06    22.647      0  05:14     564.249      1.90
  253                     4.37     2.336      0  05:01      15.007      1.00
  254                     4.77     2.474      0  09:17      35.217      1.00
  258                     1.02     1.241      0  05:52       3.000      2.00
  259                     0.66     0.191      0  06:38       0.326      2.00
  B9                     18.63    45.757      0  06:36    1034.911      4.00
  
  
  ***********************
  Outfall Loading Summary
  ***********************
  
  ---------------------------------------------------------------------------------------------------------------------------------
                        Flow       Avg.      Max.       Total         Total         Total         Total         Total         Total
                        Freq.      Flow      Flow      Volume            OD           DBO            FT            STColiformesTotais
  Outfall Node          Pcnt.       CMS       CMS    10^6 ltr            kg            kg            kg            kg          LogN
  ---------------------------------------------------------------------------------------------------------------------------------
  73                    99.55     0.287     0.834      13.416       173.859        72.801         1.751      1469.383        11.446
  ---------------------------------------------------------------------------------------------------------------------------------
  System                99.55     0.287     0.834      13.416       173.859        72.801         1.751      1469.383        11.446
  
  
  ********************
  Link Flow Summary
  ********************
  
  -----------------------------------------------------------------------------
                                 Maximum  Time of Max   Maximum    Max/    Max/
                                  |Flow|   Occurrence   |Veloc|    Full    Full
  Link                 Type          CMS  days hr:min     m/sec    Flow   Depth
  -----------------------------------------------------------------------------
  1                    CONDUIT     0.026     0  00:05      0.17    0.07    0.21
  2                    CONDUIT     0.030     0  00:05      0.18    0.04    0.11
  3                    CONDUIT     0.054     0  00:05      0.23    0.02    0.07
  4                    CONDUIT     0.046     0  00:30      0.18    0.01    0.09
  5                    CONDUIT     0.072     0  00:16      0.20    0.03    0.52
  6                    CONDUIT     3.803     0  05:20      1.99    0.03    0.54
  7                    CONDUIT     0.005     0  00:05      0.23    0.00    0.02
  8                    CONDUIT     0.004     0  00:05      0.04    0.00    0.50
  9                    CONDUIT     2.405     0  05:20      1.77    0.03    0.54
  10                   CONDUIT     1.171     0  04:59      0.85    1.12    0.97
  11                   CONDUIT     1.316     0  05:07      1.02    0.85    0.92
  12                   CONDUIT     0.881     0  10:02      0.55    0.92    0.76
  13                   CONDUIT     0.881     0  10:02      0.56    0.41    0.76
  14                   CONDUIT     0.013     0  00:05      0.13    0.01    0.47
  15                   CONDUIT     2.844     0  04:31      1.39    1.14    1.00
  16                   CONDUIT     1.605     0  04:45      1.10    0.72    0.69
  17                   CONDUIT     1.622     0  04:48      2.10    0.20    0.31
  18                   CONDUIT     1.597     0  05:00      1.11    0.19    0.66
  19                   CONDUIT     0.034     0  00:05      0.25    0.02    0.09
  20                   CONDUIT     0.067     0  00:05      0.34    0.04    0.12
  21                   CONDUIT     0.071     0  00:05      0.35    0.05    0.50
  22                   CONDUIT     3.635     0  09:39      0.97    0.70    1.00
  23                   CONDUIT     6.045     0  05:02      1.03    1.00    1.00
  24                   CONDUIT     5.950     0  08:34      1.15    0.77    0.71
  25                   CONDUIT     0.067     0  00:05      0.18    0.24    0.79
  26                   CONDUIT     0.046     0  00:05      0.20    0.11    0.17
  27                   CONDUIT     0.108     0  00:05      0.37    0.11    0.19
  28                   CONDUIT     0.083     0  00:24      0.24    0.08    0.26
  29                   CONDUIT     4.384     0  05:27      2.29    0.42    0.75
  30                   CONDUIT     0.036     0  00:05      0.23    0.06    0.13
  31                   CONDUIT     0.058     0  00:05      0.27    0.10    0.18
  32                   CONDUIT     8.693     0  05:15      1.53    0.43    0.76
  33                   CONDUIT     8.935     0  04:51      1.08    1.07    1.00
  34                   CONDUIT     7.639     0  08:09      1.17    0.75    0.79
  35                   CONDUIT     7.639     0  07:34      1.28    0.46    0.79
  36                   CONDUIT     0.102     0  00:05      0.19    0.10    0.21
  37                   CONDUIT     0.220     0  03:25      0.18    0.29    0.69
  38                   CONDUIT     4.943     0  04:44      1.99    1.00    1.00
  39                   CONDUIT     6.520     0  07:56      0.97    1.00    1.00
  40                   CONDUIT    14.422     0  03:41      1.92    1.00    1.00
  41                   CONDUIT     2.514     0  05:10      0.58    0.06    0.58
  41a                  CONDUIT     1.320     0  05:10      0.40    0.06    0.44
  42                   CONDUIT     0.022     0  00:05      0.29    0.01    0.05
  43                   CONDUIT     0.079     0  00:05      0.31    0.02    0.51
  44                   CONDUIT     0.083     0  00:05      0.28    0.02    0.07
  45                   CONDUIT     0.257     0  00:05      0.94    0.02    0.06
  46                   CONDUIT     0.246     0  00:07      0.95    0.02    0.07
  47                   CONDUIT     0.167     0  00:20      0.75    0.01    0.05
  48                   CONDUIT     0.238     0  00:05      0.51    0.00    0.03
  49                   CONDUIT     0.195     0  00:39      0.41    0.01    0.50
  50                   CONDUIT     0.009     0  00:05      0.06    0.00    0.04
  51                   CONDUIT    59.091     0  04:40      5.60    1.02    1.00
  52                   CONDUIT     0.056     0  00:05      0.25    0.14    0.22
  53                   CONDUIT     0.093     0  00:05      0.46    0.12    0.20
  54                   CONDUIT     0.167     0  00:05      0.61    0.09    0.50
  55                   CONDUIT     0.048     0  00:05      0.22    0.13    0.22
  56                   CONDUIT     5.782     0  05:16      1.28    0.43    0.59
  57                   CONDUIT     5.773     0  05:21      1.16    0.56    0.70
  58                   CONDUIT     5.760     0  05:28      1.07    0.62    0.67
  59                   CONDUIT     5.827     0  04:59      1.31    0.29    0.45
  60                   CONDUIT     5.765     0  05:38      1.20    0.31    0.40
  61                   CONDUIT     5.740     0  05:43      1.61    0.19    0.30
  62                   CONDUIT     0.045     0  00:05      0.12    0.03    0.50
  63                   CONDUIT     0.036     0  00:05      0.15    0.02    0.45
  64                   CONDUIT    12.154     0  05:34      2.12    0.18    0.42
  65                   CONDUIT    12.151     0  05:35      1.44    0.45    0.59
  66                   CONDUIT    12.106     0  05:43      0.84    0.63    0.84
  67                   CONDUIT    12.083     0  05:49      0.75    1.47    0.92
  68                   CONDUIT    12.086     0  05:50      0.74    0.58    0.95
  69                   CONDUIT     0.020     0  00:05      0.11    0.00    0.50
  70                   CONDUIT     0.039     0  00:05      0.07    0.00    0.50
  71                   CONDUIT     0.051     0  00:05      0.18    0.01    0.10
  72                   CONDUIT     0.150     0  00:05      0.37    0.06    0.14
  73                   CONDUIT     0.422     0  00:05      0.60    0.03    0.11
  74                   CONDUIT     0.342     0  00:24      0.45    0.04    0.11
  75                   CONDUIT     0.378     0  00:05      0.56    0.02    0.10
  76                   CONDUIT     0.408     0  00:05      0.15    0.05    0.56
  77                   CONDUIT     0.116     0  00:05      0.37    0.03    0.10
  78                   CONDUIT     0.144     0  00:05      0.48    0.04    0.10
  79                   CONDUIT     0.240     0  00:05      0.41    0.01    0.10
  80                   CONDUIT    15.677     0  05:35      1.26    0.78    0.73
  81                   CONDUIT    11.988     0  06:42      1.98    0.49    0.80
  82                   CONDUIT     3.664     0  05:39      0.68   14.68    0.54
  83                   CONDUIT     3.652     0  06:42      0.70    0.22    0.44
  84                   CONDUIT     0.031     0  00:05      0.17    0.01    0.10
  85                   CONDUIT     0.093     0  00:05      0.28    0.06    0.16
  86                   CONDUIT     0.124     0  00:05      0.37    0.04    0.11
  87                   CONDUIT     0.141     0  00:05      0.42    0.04    0.11
  88                   CONDUIT     0.148     0  00:13      0.39    0.02    0.08
  89                   CONDUIT     0.180     0  00:05      0.55    0.02    0.07
  90                   CONDUIT     0.165     0  00:12      0.38    0.02    0.51
  91                   CONDUIT     3.672     0  05:25      0.97    0.03    0.54
  92                   CONDUIT     0.060     0  00:05      0.25    0.04    0.11
  93                   CONDUIT     0.057     0  00:05      0.20    0.04    0.15
  94                   CONDUIT     4.560     0  05:25      2.35    0.03    0.54
  95                   CONDUIT     4.970     0  05:40      0.87    0.15    0.76
  96                   CONDUIT     8.690     0  05:47      0.95    2.14    0.76
  97                   CONDUIT     9.936     0  05:53      1.10    0.27    0.73
  98                   CONDUIT    12.538     0  05:59      1.31    0.93    1.00
  99                   CONDUIT     9.706     0  05:18      0.77    0.94    0.82
  100                  CONDUIT     9.936     0  05:23      1.09    0.51    0.66
  101                  CONDUIT     9.691     0  08:18      1.09    0.46    0.56
  102                  CONDUIT     0.056     0  00:05      0.26    0.06    0.50
  103                  CONDUIT     2.867     0  04:47      1.15    1.00    1.00
  104                  CONDUIT    15.178     0  05:52      2.07    0.44    0.61
  105                  CONDUIT    16.077     0  05:54      1.63    0.51    0.82
  106                  CONDUIT     9.850     0  05:21      0.86    1.14    0.99
  107                  CONDUIT     8.953     0  05:24      0.82    0.92    0.99
  108                  CONDUIT     0.015     0  00:05      0.10    0.00    0.07
  109                  CONDUIT     0.060     0  00:05      0.12    0.04    0.50
  110                  CONDUIT     0.044     0  00:05      0.20    0.04    0.15
  111                  CONDUIT     0.069     0  00:05      0.25    0.13    0.20
  112                  CONDUIT     0.119     0  00:05      0.45    0.12    0.19
  113                  CONDUIT     0.109     0  00:11      0.33    0.12    0.25
  114                  CONDUIT     0.150     0  00:20      0.46    0.25    0.40
  115                  CONDUIT     0.138     0  00:42      0.41    0.35    0.53
  116                  CONDUIT     0.902     0  05:54      1.22    0.83    0.82
  117                  CONDUIT     0.035     0  00:05      0.13    0.05    0.27
  118                  CONDUIT     0.064     0  00:05      0.25    0.35    0.43
  119                  CONDUIT    11.598     0  05:29      0.94    0.57    1.00
  120                  CONDUIT    10.862     0  05:34      0.72    0.99    0.98
  121                  CONDUIT     9.180     0  10:37      0.63    0.35    0.54
  122                  CONDUIT    11.185     0  00:05      0.77    0.43    0.59
  123                  CONDUIT    14.052     0  08:35      0.70    8.68    0.60
  124                  CONDUIT    14.624     0  00:05      0.76   12.22    0.57
  125                  CONDUIT    14.223     0  00:06      0.81    0.17    0.45
  126                  CONDUIT    18.516     0  08:42      0.80    0.27    0.50
  127                  CONDUIT     1.141     0  00:05      0.31    0.23    0.78
  128                  CONDUIT    20.257     0  08:43      1.13   16.25    0.33
  129                  CONDUIT     4.084     0  00:05      0.61    0.02    0.50
  130                  CONDUIT     0.829     0  05:22      0.04    0.00    0.38
  131                  CONDUIT     0.134     0  00:05      0.16    0.10    0.33
  132                  CONDUIT     0.103     0  00:05      0.26    0.31    0.40
  133                  CONDUIT     0.421     0  00:05      0.37    0.13    0.26
  134                  CONDUIT     0.196     0  00:52      0.28    0.05    0.15
  135                  CONDUIT     4.955     0  08:35      1.75    0.10    0.61
  136                  CONDUIT     0.131     0  00:05      0.16    0.04    0.16
  137                  CONDUIT     0.098     0  00:05      0.36    0.11    0.18
  138                  CONDUIT     0.214     0  00:05      0.27    0.05    0.13
  139                  CONDUIT     0.174     0  00:31      0.28    0.02    0.34
  140                  CONDUIT     0.043     0  00:05      0.19    0.01    0.08
  141                  CONDUIT     0.128     0  00:05      0.31    0.03    0.08
  142                  CONDUIT     0.142     0  00:05      0.36    0.03    0.27
  143                  CONDUIT     3.228     0  05:23      0.78    0.42    0.68
  144                  CONDUIT     6.315     0  05:34      1.10    0.56    0.74
  145                  CONDUIT     9.516     0  05:35      1.17    0.34    0.54
  146                  CONDUIT     9.758     0  05:28      0.96    0.53    0.71
  147                  CONDUIT     8.820     0  06:31      0.66    0.74    0.55
  148                  CONDUIT     0.084     0  00:05      0.25    0.01    0.06
  149                  CONDUIT     0.112     0  00:05      0.28    0.01    0.05
  150                  CONDUIT     0.096     0  00:05      0.26    0.01    0.05
  151                  CONDUIT     0.157     0  00:05      0.40    0.01    0.05
  152                  CONDUIT     0.103     0  00:34      0.29    0.01    0.20
  153                  CONDUIT     6.933     0  05:31      1.49    0.27    0.65
  154                  CONDUIT    12.388     0  06:26      1.11    0.34    0.62
  155                  CONDUIT    18.871     0  06:20      1.18    0.71    0.89
  156                  CONDUIT    15.948     0  05:51      1.28    0.76    0.69
  157                  CONDUIT    34.161     0  05:51      1.94    0.43    0.79
  158                  CONDUIT    32.215     0  06:58      1.70    0.87    0.85
  159                  CONDUIT    32.215     0  06:59      1.90    0.58    0.77
  160                  CONDUIT     0.059     0  00:05      0.25    0.02    0.08
  161                  CONDUIT     0.137     0  00:05      0.40    0.04    0.12
  162                  CONDUIT     0.116     0  00:05      0.34    0.04    0.51
  163                  CONDUIT     6.285     0  04:57      2.25    0.88    1.00
  164                  CONDUIT    10.897     0  06:29      1.32    0.82    0.83
  165                  CONDUIT    10.875     0  06:31      1.71    0.59    0.64
  166                  CONDUIT    15.020     0  05:33      2.24    0.43    0.67
  167                  CONDUIT    15.022     0  05:35      2.06    0.68    0.73
  168                  CONDUIT    15.020     0  05:38      1.95    0.56    0.77
  169                  CONDUIT    18.459     0  05:32      2.79    0.76    0.67
  170                  CONDUIT     0.062     0  00:05      0.33    0.02    0.50
  171                  CONDUIT     0.097     0  00:05      0.28    0.02    0.07
  172                  CONDUIT     0.145     0  00:05      0.38    0.02    0.08
  173                  CONDUIT     0.169     0  00:12      0.41    0.03    0.08
  174                  CONDUIT     0.233     0  00:18      0.59    0.03    0.48
  175                  CONDUIT     0.060     0  00:05      0.22    0.02    0.09
  176                  CONDUIT     0.048     0  00:05      0.20    0.02    0.08
  177                  CONDUIT     0.087     0  00:05      0.29    0.03    0.10
  178                  CONDUIT     8.759     0  05:27      1.80    0.93    0.97
  179                  CONDUIT     4.725     0  09:34      1.07    0.90    0.88
  180                  CONDUIT     4.725     0  09:35      1.14    0.71    0.88
  181                  CONDUIT     0.085     0  00:05      0.21    0.03    0.13
  182                  CONDUIT     0.217     0  00:05      0.25    0.03    0.11
  183                  CONDUIT     0.320     0  00:05      0.38    0.03    0.11
  184                  CONDUIT     0.382     0  00:05      0.37    0.03    0.11
  185                  CONDUIT     0.243     0  00:53      0.29    0.02    0.17
  186                  CONDUIT     0.088     0  00:05      0.22    0.03    0.13
  187                  CONDUIT     9.329     0  05:27      1.48    0.17    0.66
  188                  CONDUIT    37.726     0  05:51      1.78    0.77    0.92
  189                  CONDUIT    14.294     0  05:28      1.08    0.91    0.89
  190                  CONDUIT     0.084     0  00:05      0.29    0.04    0.15
  191                  CONDUIT     0.094     0  00:05      0.26    0.08    0.52
  192                  CONDUIT     0.072     0  00:05      0.18    0.10    0.51
  193                  CONDUIT     1.800     0  04:34      0.90    1.00    1.00
  194                  CONDUIT    19.677     0  05:28      1.58    0.71    0.89
  195                  CONDUIT    18.346     0  05:17      1.53    1.00    1.00
  196                  CONDUIT     0.038     0  00:05      0.26    0.01    0.50
  197                  CONDUIT     0.370     0  00:05      0.29    0.01    0.50
  198                  CONDUIT     0.280     0  00:05      0.25    0.00    0.05
  199                  CONDUIT     0.568     0  00:05      0.34    0.01    0.08
  200                  CONDUIT     0.527     0  00:18      0.32    0.02    0.17
  201                  CONDUIT     0.028     0  00:05      0.15    0.01    0.07
  202                  CONDUIT     0.026     0  00:05      0.13    0.01    0.06
  203                  CONDUIT     0.038     0  00:05      0.15    0.01    0.51
  204                  CONDUIT     0.033     0  00:05      0.17    0.01    0.48
  205                  CONDUIT     6.545     0  06:10      1.73    1.04    0.94
  206                  CONDUIT     6.545     0  06:12      1.63    0.98    0.99
[...]
  32                      1.00   0.00  0.00  0.00  1.00  0.00  0.00  0.00     0.34   0.0003
  33                      1.00   0.00  0.00  0.00  1.00  0.00  0.00  0.00     0.24   0.0006
  34                      1.00   0.00  0.00  0.00  1.00  0.00  0.00  0.00     0.32   0.0004
  35                      1.00   0.00  0.00  0.00  1.00  0.00  0.00  0.00     0.30   0.0003
  36                      1.00   0.00  0.00  0.00  1.00  0.00  0.00  0.00     0.01   0.0000
  37                      1.00   0.00  0.00  0.00  1.00  0.00  0.00  0.00     0.04   0.0007
  38                      1.00   0.00  0.00  0.00  1.00  0.00  0.00  0.00     0.40   0.0008
  39                      1.00   0.00  0.00  0.00  1.00  0.00  0.00  0.00     0.22   0.0007
  40                      1.00   0.00  0.00  0.00  1.00  0.00  0.00  0.00     0.31   0.0007
  41                      1.00   0.00  0.00  0.00  1.00  0.00  0.00  0.00     0.07   0.0000
  41a                     1.00   0.00  0.00  0.00  1.00  0.00  0.00  0.00     0.12   0.0000
  42                      1.00   0.00  0.00  0.00  1.00  0.00  0.00  0.00     0.11   0.0000
  43                      1.00   0.00  0.00  0.00  1.00  0.00  0.00  0.00     0.00   0.0000
  44                      1.00   0.00  0.00  0.00  1.00  0.00  0.00  0.00     0.09   0.0000
  45                      1.00   0.00  0.00  0.00  1.00  0.00  0.00  0.00     0.30   0.0000
  46                      1.00   0.00  0.00  0.00  1.00  0.00  0.00  0.00     0.15   0.0000
  47                      1.00   0.00  0.00  0.00  1.00  0.00  0.00  0.00     0.43   0.0000
  48                      1.00   0.00  0.00  0.00  1.00  0.00  0.00  0.00     0.32   0.0000
  49                      1.00   0.00  0.00  0.00  1.00  0.00  0.00  0.00     0.02   0.0000
  50                      1.00   0.00  0.00  0.00  1.00  0.00  0.00  0.00     0.01   0.0000
  51                      1.00   0.00  0.00  0.00  0.92  0.08  0.00  0.00     0.43   0.0007
  52                      1.00   0.00  0.00  0.00  1.00  0.00  0.00  0.00     0.09   0.0000
  53                      1.00   0.00  0.00  0.00  1.00  0.00  0.00  0.00     0.20   0.0000
  54                      1.00   0.00  0.00  0.00  1.00  0.00  0.00  0.00     0.05   0.0000
  55                      1.00   0.00  0.00  0.00  1.00  0.00  0.00  0.00     0.05   0.0000
  56                      1.00   0.00  0.00  0.00  1.00  0.00  0.00  0.00     0.33   0.0003
  57                      1.00   0.00  0.00  0.00  1.00  0.00  0.00  0.00     0.25   0.0004
  58                      1.00   0.00  0.00  0.00  1.00  0.00  0.00  0.00     0.26   0.0004
  59                      1.00   0.00  0.00  0.00  1.00  0.00  0.00  0.00     0.28   0.0002
  60                      1.00   0.00  0.00  0.00  1.00  0.00  0.00  0.00     0.30   0.0002
  61                      1.00   0.00  0.00  0.00  1.00  0.00  0.00  0.00     0.46   0.0001
  62                      1.00   0.00  0.00  0.00  1.00  0.00  0.00  0.00     0.00   0.0000
  63                      1.00   0.00  0.00  0.00  1.00  0.00  0.00  0.00     0.00   0.0000
  64                      1.00   0.00  0.00  0.00  1.00  0.00  0.00  0.00     0.55   0.0001
  65                      1.00   0.00  0.00  0.00  1.00  0.00  0.00  0.00     0.30   0.0003
  66                      1.00   0.00  0.00  0.00  1.00  0.00  0.00  0.00     0.14   0.0004
  67                      1.00   0.00  0.00  0.00  1.00  0.00  0.00  0.00     0.11   0.0010
  68                      1.00   0.00  0.00  0.00  1.00  0.00  0.00  0.00     0.09   0.0004
  69                      1.00   0.00  0.08  0.00  0.92  0.00  0.00  0.00     0.00   0.0000
  70                      1.00   0.00  0.00  0.00  1.00  0.00  0.00  0.00     0.00   0.0000
  71                      1.00   0.00  0.00  0.00  1.00  0.00  0.00  0.00     0.00   0.0000
  72                      1.00   0.00  0.00  0.00  1.00  0.00  0.00  0.00     0.19   0.0000
  73                      1.00   0.00  0.00  0.00  1.00  0.00  0.00  0.00     0.14   0.0000
  74                      1.00   0.00  0.00  0.00  1.00  0.00  0.00  0.00     0.22   0.0000
  75                      1.00   0.00  0.00  0.00  1.00  0.00  0.00  0.00     0.29   0.0000
  76                      1.00   0.00  0.00  0.00  1.00  0.00  0.00  0.00     0.00   0.0000
  77                      1.00   0.00  0.00  0.00  1.00  0.00  0.00  0.00     0.05   0.0000
  78                      1.00   0.00  0.00  0.00  1.00  0.00  0.00  0.00     0.25   0.0000
  79                      1.00   0.00  0.00  0.00  1.00  0.00  0.00  0.00     0.04   0.0000
  80                      1.00   0.00  0.00  0.00  1.00  0.00  0.00  0.00     0.17   0.0005
  81                      1.00   0.00  0.00  0.00  1.00  0.00  0.00  0.00     0.23   0.0003
  82                      1.00   0.00  0.00  0.00  1.00  0.00  0.00  0.00     0.14   0.0105
  83                      1.00   0.00  0.00  0.00  1.00  0.00  0.00  0.00     0.23   0.0002
  84                      1.00   0.00  0.00  0.00  1.00  0.00  0.00  0.00     0.01   0.0000
  85                      1.00   0.00  0.00  0.00  1.00  0.00  0.00  0.00     0.05   0.0000
  86                      1.00   0.00  0.00  0.00  1.00  0.00  0.00  0.00     0.18   0.0000
  87                      1.00   0.00  0.00  0.00  1.00  0.00  0.00  0.00     0.16   0.0000
  88                      1.00   0.00  0.00  0.00  1.00  0.00  0.00  0.00     0.22   0.0000
  89                      1.00   0.00  0.00  0.00  1.00  0.00  0.00  0.00     0.26   0.0000
  90                      1.00   0.00  0.00  0.00  1.00  0.00  0.00  0.00     0.01   0.0000
  91                      1.00   0.00  0.00  0.00  1.00  0.00  0.00  0.00     0.12   0.0000
  92                      1.00   0.00  0.00  0.00  1.00  0.00  0.00  0.00     0.01   0.0000
  93                      1.00   0.00  0.00  0.00  1.00  0.00  0.00  0.00     0.02   0.0000
  94                      1.00   0.00  0.00  0.00  0.98  0.01  0.00  0.00     0.22   0.0000
  95                      1.00   0.00  0.00  0.00  1.00  0.00  0.00  0.00     0.09   0.0001
  96                      1.00   0.00  0.00  0.00  1.00  0.00  0.00  0.00     0.18   0.0015
  97                      1.00   0.00  0.00  0.00  1.00  0.00  0.00  0.00     0.33   0.0002
  98                      1.00   0.00  0.00  0.00  1.00  0.00  0.00  0.00     0.22   0.0006
  99                      1.00   0.00  0.00  0.00  1.00  0.00  0.00  0.00     0.16   0.0006
  100                     1.00   0.00  0.00  0.00  1.00  0.00  0.00  0.00     0.21   0.0003
  101                     1.00   0.00  0.00  0.00  1.00  0.00  0.00  0.00     0.28   0.0003
  102                     1.00   0.00  0.00  0.00  1.00  0.00  0.00  0.00     0.02   0.0000
  103                     1.00   0.00  0.00  0.00  1.00  0.00  0.00  0.00     0.23   0.0007
  104                     1.00   0.00  0.00  0.00  1.00  0.00  0.00  0.00     0.59   0.0003
  105                     1.00   0.00  0.00  0.00  1.00  0.00  0.00  0.00     0.34   0.0003
  106                     1.00   0.00  0.00  0.00  1.00  0.00  0.00  0.00     0.18   0.0007
  107                     1.00   0.00  0.00  0.00  1.00  0.00  0.00  0.00     0.20   0.0006
  108                     1.00   0.00  0.15  0.00  0.85  0.00  0.00  0.00     0.00   0.0000
  109                     1.00   0.00  0.00  0.00  1.00  0.00  0.00  0.00     0.00   0.0000
  110                     1.00   0.00  0.00  0.00  1.00  0.00  0.00  0.00     0.01   0.0000
  111                     1.00   0.00  0.00  0.00  1.00  0.00  0.00  0.00     0.11   0.0000
  112                     1.00   0.00  0.00  0.00  1.00  0.00  0.00  0.00     0.18   0.0000
  113                     1.00   0.00  0.00  0.00  1.00  0.00  0.00  0.00     0.13   0.0000
  114                     1.00   0.00  0.00  0.00  1.00  0.00  0.00  0.00     0.18   0.0001
  115                     1.00   0.00  0.00  0.00  1.00  0.00  0.00  0.00     0.03   0.0001
  116                     1.00   0.00  0.00  0.00  1.00  0.00  0.00  0.00     0.45   0.0005
  117                     1.00   0.00  0.00  0.00  1.00  0.00  0.00  0.00     0.00   0.0000
  118                     1.00   0.00  0.00  0.00  1.00  0.00  0.00  0.00     0.05   0.0001
  119                     1.00   0.00  0.00  0.00  1.00  0.00  0.00  0.00     0.18   0.0004
  120                     1.00   0.00  0.00  0.00  1.00  0.00  0.00  0.00     0.11   0.0008
  121                     1.00   0.00  0.00  0.00  1.00  0.00  0.00  0.00     0.11   0.0004
  122                     1.00   0.00  0.00  0.00  1.00  0.00  0.00  0.00     0.08   0.0005
  123                     1.00   0.00  0.00  0.00  1.00  0.00  0.00  0.00     0.12   0.0092
  124                     1.00   0.00  0.00  0.00  1.00  0.00  0.00  0.00     0.13   0.0107
  125                     1.00   0.00  0.00  0.00  1.00  0.00  0.00  0.00     0.16   0.0002
  126                     1.00   0.00  0.00  0.00  1.00  0.00  0.00  0.00     0.12   0.0002
  127                     1.00   0.00  0.00  0.00  1.00  0.00  0.00  0.00     0.01   0.0002
  128                     1.00   0.00  0.00  0.00  1.00  0.00  0.00  0.00     0.22   0.0125
  129                     1.00   0.00  0.00  0.00  1.00  0.00  0.00  0.00     0.01   0.0000
  130                     1.00   0.00  0.00  0.00  1.00  0.00  0.00  0.00     0.00   0.0000
  131                     1.00   0.00  0.00  0.00  1.00  0.00  0.00  0.00     0.00   0.0000
  132                     1.00   0.00  0.00  0.00  1.00  0.00  0.00  0.00     0.13   0.0001
  133                     1.00   0.00  0.00  0.00  1.00  0.00  0.00  0.00     0.13   0.0000
  134                     1.00   0.00  0.00  0.00  1.00  0.00  0.00  0.00     0.12   0.0000
  135                     1.00   0.00  0.00  0.00  1.00  0.00  0.00  0.00     0.29   0.0001
  136                     1.00   0.00  0.00  0.00  1.00  0.00  0.00  0.00     0.01   0.0000
  137                     1.00   0.00  0.00  0.00  1.00  0.00  0.00  0.00     0.21   0.0000
  138                     1.00   0.00  0.00  0.00  1.00  0.00  0.00  0.00     0.15   0.0000
  139                     1.00   0.00  0.00  0.00  1.00  0.00  0.00  0.00     0.05   0.0000
  140                     1.00   0.00  0.00  0.00  1.00  0.00  0.00  0.00     0.01   0.0000
  141                     1.00   0.00  0.00  0.00  1.00  0.00  0.00  0.00     0.09   0.0000
  142                     1.00   0.00  0.00  0.00  1.00  0.00  0.00  0.00     0.03   0.0000
  143                     1.00   0.00  0.00  0.00  1.00  0.00  0.00  0.00     0.16   0.0003
  144                     1.00   0.00  0.00  0.00  1.00  0.00  0.00  0.00     0.27   0.0004
  145                     1.00   0.00  0.00  0.00  1.00  0.00  0.00  0.00     0.22   0.0002
  146                     1.00   0.00  0.00  0.00  1.00  0.00  0.00  0.00     0.11   0.0004
  147                     1.00   0.00  0.00  0.00  1.00  0.00  0.00  0.00     0.11   0.0005
  148                     1.00   0.00  0.00  0.00  1.00  0.00  0.00  0.00     0.04   0.0000
  149                     1.00   0.00  0.00  0.00  1.00  0.00  0.00  0.00     0.07   0.0000
  150                     1.00   0.00  0.00  0.00  1.00  0.00  0.00  0.00     0.18   0.0000
  151                     1.00   0.00  0.00  0.00  1.00  0.00  0.00  0.00     0.21   0.0000
  152                     1.00   0.00  0.00  0.00  1.00  0.00  0.00  0.00     0.05   0.0000
  153                     1.00   0.00  0.00  0.00  1.00  0.00  0.00  0.00     0.21   0.0002
  154                     1.00   0.00  0.00  0.00  1.00  0.00  0.00  0.00     0.25   0.0002
  155                     1.00   0.00  0.00  0.00  1.00  0.00  0.00  0.00     0.19   0.0005
  156                     1.00   0.00  0.00  0.00  1.00  0.00  0.00  0.00     0.25   0.0005
  157                     1.00   0.00  0.00  0.00  1.00  0.00  0.00  0.00     0.41   0.0003
  158                     1.00   0.00  0.00  0.00  1.00  0.00  0.00  0.00     0.36   0.0006
  159                     1.00   0.00  0.00  0.00  1.00  0.00  0.00  0.00     0.43   0.0004
  160                     1.00   0.00  0.00  0.00  1.00  0.00  0.00  0.00     0.05   0.0000
  161                     1.00   0.00  0.00  0.00  1.00  0.00  0.00  0.00     0.03   0.0000
  162                     1.00   0.00  0.00  0.00  1.00  0.00  0.00  0.00     0.04   0.0000
  163                     1.00   0.00  0.00  0.00  0.99  0.00  0.00  0.00     0.40   0.0006
  164                     1.00   0.00  0.00  0.00  1.00  0.00  0.00  0.00     0.27   0.0005
  165                     1.00   0.00  0.00  0.00  1.00  0.00  0.00  0.00     0.40   0.0004
  166                     1.00   0.00  0.00  0.00  1.00  0.00  0.00  0.00     0.53   0.0003
  167                     1.00   0.00  0.00  0.00  1.00  0.00  0.00  0.00     0.47   0.0004
  168                     1.00   0.00  0.00  0.00  1.00  0.00  0.00  0.00     0.44   0.0004
  169                     1.00   0.00  0.00  0.00  1.00  0.00  0.00  0.00     0.58   0.0005
  170                     1.00   0.00  0.00  0.00  1.00  0.00  0.00  0.00     0.01   0.0000
  171                     1.00   0.00  0.00  0.00  1.00  0.00  0.00  0.00     0.09   0.0000
  172                     1.00   0.00  0.00  0.00  1.00  0.00  0.00  0.00     0.14   0.0000
  173                     1.00   0.00  0.00  0.00  1.00  0.00  0.00  0.00     0.21   0.0000
  174                     1.00   0.00  0.00  0.00  1.00  0.00  0.00  0.00     0.06   0.0000
  175                     1.00   0.00  0.00  0.00  1.00  0.00  0.00  0.00     0.02   0.0000
  176                     1.00   0.00  0.00  0.00  1.00  0.00  0.00  0.00     0.03   0.0000
  177                     1.00   0.00  0.00  0.00  1.00  0.00  0.00  0.00     0.06   0.0000
  178                     1.00   0.00  0.00  0.00  1.00  0.00  0.00  0.00     0.34   0.0007
  179                     1.00   0.00  0.00  0.00  1.00  0.00  0.00  0.00     0.26   0.0005
  180                     1.00   0.00  0.00  0.00  1.00  0.00  0.00  0.00     0.27   0.0004
  181                     1.00   0.00  0.00  0.00  1.00  0.00  0.00  0.00     0.01   0.0000
  182                     1.00   0.00  0.00  0.00  1.00  0.00  0.00  0.00     0.11   0.0000
  183                     1.00   0.00  0.00  0.00  1.00  0.00  0.00  0.00     0.21   0.0000
  184                     1.00   0.00  0.00  0.00  1.00  0.00  0.00  0.00     0.15   0.0000
  185                     1.00   0.00  0.00  0.00  1.00  0.00  0.00  0.00     0.07   0.0000
  186                     1.00   0.00  0.00  0.00  1.00  0.00  0.00  0.00     0.01   0.0000
  187                     1.00   0.00  0.00  0.00  1.00  0.00  0.00  0.00     0.23   0.0001
  188                     1.00   0.00  0.00  0.00  1.00  0.00  0.00  0.00     0.26   0.0005
  189                     1.00   0.00  0.00  0.00  1.00  0.00  0.00  0.00     0.25   0.0005
  190                     1.00   0.00  0.00  0.00  1.00  0.00  0.00  0.00     0.03   0.0000
  191                     1.00   0.00  0.00  0.00  1.00  0.00  0.00  0.00     0.02   0.0000
  192                     1.00   0.00  0.00  0.00  1.00  0.00  0.00  0.00     0.02   0.0000
  193                     1.00   0.00  0.00  0.00  1.00  0.00  0.00  0.00     0.14   0.0006
  194                     1.00   0.00  0.00  0.00  1.00  0.00  0.00  0.00     0.37   0.0004
  195                     1.00   0.00  0.00  0.00  1.00  0.00  0.00  0.00     0.23   0.0006
  196                     1.00   0.00  0.00  0.00  1.00  0.00  0.00  0.00     0.00   0.0000
  197                     1.00   0.00  0.00  0.00  1.00  0.00  0.00  0.00     0.00   0.0000
  198                     1.00   0.00  0.00  0.00  1.00  0.00  0.00  0.00     0.02   0.0000
  199                     1.00   0.00  0.00  0.00  1.00  0.00  0.00  0.00     0.12   0.0000
  200                     1.00   0.00  0.00  0.00  1.00  0.00  0.00  0.00     0.04   0.0000
  201                     1.00   0.00  0.00  0.00  1.00  0.00  0.00  0.00     0.01   0.0000
  202                     1.00   0.00  0.00  0.00  1.00  0.00  0.00  0.00     0.03   0.0000
  203                     1.00   0.00  0.00  0.00  1.00  0.00  0.00  0.00     0.03   0.0000
  204                     1.00   0.00  0.00  0.00  1.00  0.00  0.00  0.00     0.02   0.0000
  205                     1.00   0.00  0.00  0.00  1.00  0.00  0.00  0.00     0.47   0.0007
  206                     1.00   0.00  0.00  0.00  1.00  0.00  0.00  0.00     0.41   0.0007
  207                     1.00   0.00  0.00  0.00  1.00  0.00  0.00  0.00     0.21   0.0006
  208                     1.00   0.00  0.00  0.00  1.00  0.00  0.00  0.00     0.25   0.0004
  209                     1.00   0.00  0.00  0.00  0.48  0.52  0.00  0.00     0.92   0.0003
  210                     1.00   0.00  0.00  0.00  1.00  0.00  0.00  0.00     0.01   0.0000
  211                     1.00   0.00  0.00  0.00  1.00  0.00  0.00  0.00     0.27   0.0001
  212                     1.00   0.00  0.00  0.00  1.00  0.00  0.00  0.00     0.30   0.0004
  213                     1.00   0.00  0.00  0.00  1.00  0.00  0.00  0.00     0.18   0.0005
  214                     1.00   0.00  0.00  0.00  1.00  0.00  0.00  0.00     0.14   0.0007
  215                     1.00   0.00  0.00  0.00  1.00  0.00  0.00  0.00     0.22   0.0005
  216                     1.00   0.00  0.00  0.00  1.00  0.00  0.00  0.00     0.01   0.0000
  217                     1.00   0.00  0.00  0.00  1.00  0.00  0.00  0.00     0.38   0.0002
  218                     1.00   0.00  0.00  0.00  1.00  0.00  0.00  0.00     0.31   0.0002
  219                     1.00   0.00  0.00  0.00  1.00  0.00  0.00  0.00     0.14   0.0001
  220                     1.00   0.00  0.00  0.00  1.00  0.00  0.00  0.00     0.05   0.0004
  221                     1.00   0.00  0.00  0.00  1.00  0.00  0.00  0.00     0.09   0.0000
  222                     1.00   0.00  0.00  0.00  0.00  1.00  0.00  0.00     2.38   0.0000
  
  
  *************************
  Conduit Surcharge Summary
  *************************
  
  ----------------------------------------------------------------------------
                                                           Hours        Hours 
                         --------- Hours Full --------   Above Full   Capacity
  Conduit                Both Ends  Upstream  Dnstream   Normal Flow   Limited
  ----------------------------------------------------------------------------
  10                          0.01      0.01      0.01      4.94         0.01
  15                          5.87      5.87      5.87      0.06         0.01
  22                          4.99      4.99      4.99      0.01         0.01
  23                          0.01      0.01      0.01      0.01         0.01
  33                          5.32      5.32      5.32      5.38         5.32
  39                          4.47      4.47      4.48      0.05         0.01
  40                          4.58      4.58      4.59      4.57         4.58
  51                          0.01      0.01      0.01      0.66         0.01
  67                          0.01      0.01      0.01      4.14         0.01
  82                          0.01      0.01      0.01      7.52         0.01
  96                          0.01      0.01      0.01      5.35         0.01
  98                          4.06      4.06      4.07      0.01         0.01
  106                         0.01      0.01      0.01      5.28         0.01
  119                         4.97      4.97      4.98      0.01         0.01
  123                         0.01      0.01      0.01     13.00         0.01
  124                         0.01      0.01      0.01     15.14         0.01
  128                         0.01      0.01      0.01     17.14         0.01
  163                         1.50      1.50      1.50      0.01         0.01
  195                         4.59      4.59      4.59      0.01         0.01
  205                         0.01      0.01      0.01      1.31         0.01
  214                         0.41      0.41      0.41      0.67         0.01
  

  Analysis begun on:  Mon Nov 11 14:04:10 2013
  Analysis ended on:  Mon Nov 11 14:04:17 2013
  Total elapsed time: 00:00:07